resultados/CN12/CN15_EXP_VOLTAGES.CSV
Bus, BasekV, Node1, Magnitude1, Angle1, pu1, Node2, Magnitude2, Angle2, pu2, Node3, Magnitude3, Angle3, pu3
"SCN_CN15_9199_CEI77A_ATV", 13.8, 1,    7920.93,   -0.3,   0.99416, 2,    7920.93, -120.3,   0.99416, 3,    7920.93,  119.7,   0.99416
"SCN_CN15_9153_CEI109", 13.8, 1,    5630.28,   -5.4,   0.70666, 2,    5630.27, -125.4,   0.70666, 3,    5630.27,  114.6,   0.70666
"SCN_CN15_9154_CEI109", 13.8, 1,    5630.32,   -5.4,   0.70667, 2,    5630.31, -125.4,   0.70667, 3,    5630.31,  114.6,   0.70667
"SCN_CN15_9098_CEI131_ATV", 13.8, 1,    5728.31,   -4.9,   0.71897, 2,     5728.3, -124.9,   0.71896, 3,     5728.3,  115.1,   0.71896
"SCN_CN15_9097_CEI131_ATV", 13.8, 1,    5728.32,   -4.9,   0.71897, 2,    5728.31, -124.9,   0.71897, 3,    5728.31,  115.1,   0.71897
"SCN_CN15_9079_CEI201_ATV", 13.8, 1,    5837.58,   -4.4,   0.73268, 2,    5837.57, -124.4,   0.73268, 3,    5837.57,  115.6,   0.73268
"SCN_CN15_9080_CEI201_ATV", 13.8, 1,    5837.57,   -4.4,   0.73268, 2,    5837.56, -124.4,   0.73268, 3,    5837.56,  115.6,   0.73268
"SCN_CN15_9356_CEI109", 13.8, 1,    5598.05,   -5.5,   0.70262, 2,    5598.04, -125.5,   0.70262, 3,    5598.04,  114.5,   0.70262
"SCN_CN15_9349_CEI109", 13.8, 1,    5598.61,   -5.5,   0.70269, 2,     5598.6, -125.5,   0.70269, 3,     5598.6,  114.5,   0.70269
"SCN_CN15_9039_CEI201_ATV", 13.8, 1,    5598.88,   -5.5,   0.70272, 2,    5598.87, -125.5,   0.70272, 3,    5598.87,  114.5,   0.70272
"SCN_CN15_9021_CEI201_ATV", 13.8, 1,    5593.81,   -5.5,   0.70208, 2,    5593.81, -125.5,   0.70208, 3,     5593.8,  114.5,   0.70208
"SCN_CN15_9022_CEI201_ATV", 13.8, 1,    5594.04,   -5.5,   0.70211, 2,    5594.03, -125.5,   0.70211, 3,    5594.03,  114.5,   0.70211
"SCN_CN15_9274_CEI109", 13.8, 1,     5677.8,   -5.2,   0.71263, 2,    5677.79, -125.2,   0.71262, 3,    5677.79,  114.8,   0.71262
"SCN_CN15_9275_CEI109", 13.8, 1,    5676.23,   -5.2,   0.71243, 2,    5676.23, -125.2,   0.71243, 3,    5676.23,  114.8,   0.71243
"SCN_CN15_9269_CEI109", 13.8, 1,    5679.35,   -5.2,   0.71282, 2,    5679.34, -125.2,   0.71282, 3,    5679.34,  114.8,   0.71282
"SCN_CN15_9053_CEI201_ATV", 13.8, 1,    5601.37,   -5.5,   0.70303, 2,    5601.36, -125.5,   0.70303, 3,    5601.36,  114.5,   0.70303
"SCN_CN15_9485_CEI109", 13.8, 1,    5601.39,   -5.5,   0.70304, 2,    5601.38, -125.5,   0.70303, 3,    5601.38,  114.5,   0.70303
"SCN_CN15_421165_CEI", 13.8, 1,    5852.31,   -4.4,   0.73453, 2,     5852.3, -124.4,   0.73453, 3,     5852.3,  115.6,   0.73453
"SCN_CN15_421166_CEI", 13.8, 1,    5853.14,   -4.4,   0.73463, 2,    5853.13, -124.4,   0.73463, 3,    5853.13,  115.6,   0.73463
"SCN_CN15_9143_CEI69B", 13.8, 1,    5853.86,   -4.4,   0.73472, 2,    5853.85, -124.4,   0.73472, 3,    5853.85,  115.6,   0.73472
"SCN_CN15_9141_CEI201_ATV", 13.8, 1,    5852.31,   -4.4,   0.73453, 2,     5852.3, -124.4,   0.73453, 3,     5852.3,  115.6,   0.73453
"SCN_CN15_9129_CEI201_ATV", 13.8, 1,    5859.61,   -4.4,   0.73545, 2,     5859.6, -124.4,   0.73544, 3,     5859.6,  115.6,   0.73544
"SCN_CN15_9008_CEI220_ATV", 13.8, 1,    5859.61,   -4.4,   0.73545, 2,     5859.6, -124.4,   0.73544, 3,     5859.6,  115.6,   0.73544
"SCN_CN15_421168_CEI", 13.8, 1,    5719.96,   -5.0,   0.71792, 2,    5719.95, -125.0,   0.71792, 3,    5719.95,  115.0,   0.71792
"SCN_CN15_9015_CEI109", 13.8, 1,    5719.96,   -5.0,   0.71792, 2,    5719.95, -125.0,   0.71792, 3,    5719.95,  115.0,   0.71792
"SCN_CN15_421185_CEI", 13.8, 1,    5759.77,   -4.9,   0.72291, 2,    5759.77, -124.9,   0.72291, 3,    5759.77,  115.1,   0.72291
"SCN_CN15_9162_CEI220_ATV_S", 13.8, 1,    5757.71,   -4.9,   0.72266, 2,    5757.71, -124.9,   0.72265, 3,    5757.71,  115.1,   0.72265
"SCN_CN15_421186_CEI", 13.8, 1,    5761.32,   -4.8,   0.72311, 2,    5761.31, -124.8,   0.72311, 3,    5761.31,  115.2,   0.72311
"SCN_CN15_421187_CEI", 13.8, 1,    5763.12,   -4.8,   0.72333, 2,    5763.11, -124.8,   0.72333, 3,    5763.11,  115.2,   0.72333
"SCN_CN15_421169_CEI", 13.8, 1,    5765.69,   -4.8,   0.72366, 2,    5765.68, -124.8,   0.72366, 3,    5765.68,  115.2,   0.72366
"SCN_CN15_9012_CEI120", 13.8, 1,    5764.16,   -4.8,   0.72347, 2,    5764.16, -124.8,   0.72346, 3,    5764.16,  115.2,   0.72346
"SCN_CN15_421170_CEI", 13.8, 1,    5777.73,   -4.8,   0.72517, 2,    5777.72, -124.8,   0.72517, 3,    5777.72,  115.2,   0.72517
"SCN_CN15_421171_CEI", 13.8, 1,    5777.73,   -4.8,   0.72517, 2,    5777.72, -124.8,   0.72517, 3,    5777.72,  115.2,   0.72517
"SCN_CN15_421172_CEI", 13.8, 1,    5777.73,   -4.8,   0.72517, 2,    5777.72, -124.8,   0.72517, 3,    5777.72,  115.2,   0.72517
"SCN_CN15_421173_CEI", 13.8, 1,    5777.73,   -4.8,   0.72517, 2,    5777.72, -124.8,   0.72517, 3,    5777.72,  115.2,   0.72517
"SCN_CN15_421174_CEI", 13.8, 1,    5777.73,   -4.8,   0.72517, 2,    5777.72, -124.8,   0.72517, 3,    5777.72,  115.2,   0.72517
"SCN_CN15_421175_CEI", 13.8, 1,    5788.23,   -4.7,   0.72649, 2,    5788.22, -124.7,   0.72648, 3,    5788.22,  115.3,   0.72648
"SCN_CN15_421176_CEI", 13.8, 1,    5788.23,   -4.7,   0.72649, 2,    5788.22, -124.7,   0.72648, 3,    5788.22,  115.3,   0.72648
"SCN_CN15_421177_CEI", 13.8, 1,    5788.23,   -4.7,   0.72649, 2,    5788.22, -124.7,   0.72648, 3,    5788.22,  115.3,   0.72648
"SCN_CN15_421178_CEI", 13.8, 1,    5788.23,   -4.7,   0.72649, 2,    5788.22, -124.7,   0.72648, 3,    5788.22,  115.3,   0.72648
"SCN_CN15_421179_CEI", 13.8, 1,    5810.46,   -4.7,   0.72928, 2,    5810.45, -124.7,   0.72928, 3,    5810.45,  115.3,   0.72928
"SCN_CN15_9047_CEI130_ATV", 13.8, 1,    5841.49,   -4.5,   0.73317, 2,    5841.48, -124.5,   0.73317, 3,    5841.48,  115.5,   0.73317
"SCN_CN15_421180_CEI", 13.8, 1,    5841.49,   -4.5,   0.73317, 2,    5841.48, -124.5,   0.73317, 3,    5841.48,  115.5,   0.73317
"SCN_CN15_9037_CEI130_ATV", 13.8, 1,    5894.87,   -4.4,   0.73987, 2,    5894.86, -124.4,   0.73987, 3,    5894.86,  115.6,   0.73987
"SCN_CN15_9047_CEI130_ATV_S", 13.8, 1,    5841.49,   -4.5,   0.73317, 2,    5841.48, -124.5,   0.73317, 3,    5841.48,  115.5,   0.73317
"SCN_CN15_421181_CEI", 13.8, 1,    5906.21,   -4.3,   0.74129, 2,    5906.21, -124.3,   0.74129, 3,    5906.21,  115.7,   0.74129
"SCN_CN15_9040_CEI130_ATV", 13.8, 1,    5906.21,   -4.3,   0.74129, 2,    5906.21, -124.3,   0.74129, 3,    5906.21,  115.7,   0.74129
"SCN_CN15_421182_CEI", 13.8, 1,    5906.21,   -4.3,   0.74129, 2,    5906.21, -124.3,   0.74129, 3,    5906.21,  115.7,   0.74129
"SCN_CN15_421183_CEI", 13.8, 1,    5906.21,   -4.3,   0.74129, 2,    5906.21, -124.3,   0.74129, 3,    5906.21,  115.7,   0.74129
"SCN_CN15_421184_CEI", 13.8, 1,    5906.21,   -4.3,   0.74129, 2,    5906.21, -124.3,   0.74129, 3,    5906.21,  115.7,   0.74129
"SCN_CN15_421195_CEI", 13.8, 1,    5957.99,   -4.1,   0.74779, 2,    5957.98, -124.1,   0.74779, 3,    5957.98,  115.9,   0.74779
"SCN_CN15_9022_CEI250_ATV", 13.8, 1,    5955.77,   -4.1,   0.74751, 2,    5955.77, -124.1,   0.74751, 3,    5955.77,  115.9,   0.74751
"SCN_CN15_421196_CEI", 13.8, 1,    5961.13,   -4.1,   0.74819, 2,    5961.12, -124.1,   0.74819, 3,    5961.12,  115.9,   0.74819
"SCN_CN15_9025_CEI130_ATV", 13.8, 1,     5963.7,   -4.1,   0.74851, 2,    5963.69, -124.1,   0.74851, 3,    5963.69,  115.9,   0.74851
"SCN_CN15_421197_CEI", 13.8, 1,    5841.11,   -4.5,   0.73312, 2,     5841.1, -124.5,   0.73312, 3,    5841.11,  115.5,   0.73312
"SCN_CN15_9004_CEI160_ATV", 13.8, 1,    5841.11,   -4.5,   0.73312, 2,     5841.1, -124.5,   0.73312, 3,    5841.11,  115.5,   0.73312
"SCN_CN15_9005_CEI160_ATV", 13.8, 1,    5841.11,   -4.5,   0.73312, 2,     5841.1, -124.5,   0.73312, 3,    5841.11,  115.5,   0.73312
"SCN_CN15_9017_CEI130A_ATV", 13.8, 1,    6181.88,   -3.6,   0.77589, 2,    6181.87, -123.6,   0.77589, 3,    6181.87,  116.4,   0.77589
"SCN_CN15_421206_CEI", 13.8, 1,    6181.88,   -3.6,   0.77589, 2,    6181.87, -123.6,   0.77589, 3,    6181.87,  116.4,   0.77589
"SCN_CN15_9034_CEI130A_ATV", 13.8, 1,    6180.41,   -3.6,   0.77571, 2,     6180.4, -123.6,   0.77571, 3,     6180.4,  116.4,   0.77571
"SCN_CN15_421207_CEI", 13.8, 1,    6180.41,   -3.6,   0.77571, 2,     6180.4, -123.6,   0.77571, 3,     6180.4,  116.4,   0.77571
"SCN_CN15_421208_CEI", 13.8, 1,    6180.41,   -3.6,   0.77571, 2,     6180.4, -123.6,   0.77571, 3,     6180.4,  116.4,   0.77571
"SCN_CN15_421209_CEI", 13.8, 1,    6180.41,   -3.6,   0.77571, 2,     6180.4, -123.6,   0.77571, 3,     6180.4,  116.4,   0.77571
"SCN_CN15_421210_CEI", 13.8, 1,    6180.41,   -3.6,   0.77571, 2,     6180.4, -123.6,   0.77571, 3,     6180.4,  116.4,   0.77571
"SCN_CN15_421211_CEI", 13.8, 1,    6180.41,   -3.6,   0.77571, 2,     6180.4, -123.6,   0.77571, 3,     6180.4,  116.4,   0.77571
"SCN_CN15_421212_CEI", 13.8, 1,    6180.41,   -3.6,   0.77571, 2,     6180.4, -123.6,   0.77571, 3,     6180.4,  116.4,   0.77571
"SCN_CN15_9040_CEI130A_ATV", 13.8, 1,    6180.29,   -3.6,   0.77569, 2,    6180.29, -123.6,   0.77569, 3,    6180.29,  116.4,   0.77569
"SCN_CN15_421213_CEI", 13.8, 1,    6180.29,   -3.6,   0.77569, 2,    6180.29, -123.6,   0.77569, 3,    6180.29,  116.4,   0.77569
"SCN_CN15_421218_CEI", 13.8, 1,    6187.39,   -3.6,   0.77658, 2,    6187.38, -123.6,   0.77658, 3,    6187.38,  116.4,   0.77658
"SCN_CN15_9353_CEI065", 13.8, 1,    6187.39,   -3.6,   0.77658, 2,    6187.38, -123.6,   0.77658, 3,    6187.38,  116.4,   0.77658
"SCN_CN15_421219_CEI", 13.8, 1,    6187.39,   -3.6,   0.77658, 2,    6187.38, -123.6,   0.77658, 3,    6187.38,  116.4,   0.77658
"CN_ALCN15", 13.8, 1,    6187.39,   -3.6,   0.77658, 2,    6187.38, -123.6,   0.77658, 3,    6187.38,  116.4,   0.77658
"SCN_CN15_421227_CEI", 13.8, 1,    5713.89,   -4.6,   0.71716, 2,    5713.88, -124.6,   0.71715, 3,    5713.88,  115.4,   0.71715
"SCN_CN15_9006_CEIRJ013_ATV", 13.8, 1,    5713.89,   -4.6,   0.71716, 2,    5713.88, -124.6,   0.71715, 3,    5713.88,  115.4,   0.71715
"SCN_CN15_9067_CEIRJ006_ATV", 13.8, 1,     5717.6,   -4.6,   0.71762, 2,    5717.59, -124.6,   0.71762, 3,    5717.59,  115.4,   0.71762
"SCN_CN15_9064_CEIRJ006_ATV", 13.8, 1,     5717.6,   -4.6,   0.71762, 2,    5717.59, -124.6,   0.71762, 3,    5717.59,  115.4,   0.71762
"SCN_CN15_421241_CEI", 13.8, 1,     5717.6,   -4.6,   0.71762, 2,    5717.59, -124.6,   0.71762, 3,    5717.59,  115.4,   0.71762
"SCN_CN15_9068_CEIRJ006_ATV", 13.8, 1,     5717.6,   -4.6,   0.71762, 2,    5717.59, -124.6,   0.71762, 3,    5717.59,  115.4,   0.71762
"SCN_CN15_9050_CEI160_ATV", 13.8, 1,    6971.95,   -2.2,   0.87506, 2,    6971.95, -122.2,   0.87506, 3,    6971.95,  117.8,   0.87506
"SCN_CN15_9014_CEI077_ATV", 13.8, 1,    6972.87,   -2.2,   0.87517, 2,    6972.86, -122.2,   0.87517, 3,    6972.86,  117.8,   0.87517
"SCN_CN15_9052_CEI160_ATV", 13.8, 1,    6971.95,   -2.2,   0.87506, 2,    6971.95, -122.2,   0.87506, 3,    6971.95,  117.8,   0.87506
"SCN_CN15_421244_CEI", 13.8, 1,    6971.09,   -2.2,   0.87495, 2,    6971.09, -122.2,   0.87495, 3,    6971.09,  117.8,   0.87495
"SCN_CN15_421245_CEI", 13.8, 1,     6970.2,   -2.2,   0.87484, 2,    6970.19, -122.2,   0.87484, 3,    6970.19,  117.8,   0.87484
"SCN_CN15_9005_CEIRJ012_ATV_S", 13.8, 1,    6969.34,   -2.2,   0.87473, 2,    6969.33, -122.2,   0.87473, 3,    6969.33,  117.8,   0.87473
"SCN_CN15_9024_CEI167_ATV", 13.8, 1,    7009.59,   -2.1,   0.87978, 2,    7009.59, -122.1,   0.87978, 3,    7009.59,  117.9,   0.87978
"SCN_CN15_9025_CEI167_ATV", 13.8, 1,    7009.59,   -2.1,   0.87978, 2,    7009.59, -122.1,   0.87978, 3,    7009.59,  117.9,   0.87978
"SCN_CN15_9002_CEIRJ013_ATV", 13.8, 1,    7009.59,   -2.1,   0.87978, 2,    7009.59, -122.1,   0.87978, 3,    7009.59,  117.9,   0.87978
"SCN_CN15_9037_CEI77A_ATV", 13.8, 1,    7028.14,   -2.1,   0.88211, 2,    7028.14, -122.1,   0.88211, 3,    7028.14,  117.9,   0.88211
"SCN_CN15_9035_CEIRJ006_ATV", 13.8, 1,    7028.14,   -2.1,   0.88211, 2,    7028.14, -122.1,   0.88211, 3,    7028.14,  117.9,   0.88211
"SCN_CN15_9036_CEIRJ006_ATV", 13.8, 1,    7028.14,   -2.1,   0.88211, 2,    7028.14, -122.1,   0.88211, 3,    7028.14,  117.9,   0.88211
"SCN_CN15_9105_CEI201_ATV", 13.8, 1,     5836.5,   -4.4,   0.73254, 2,    5836.49, -124.4,   0.73254, 3,    5836.49,  115.6,   0.73254
"SCN_CN15_9102_CEI201_ATV_S", 13.8, 1,    5836.38,   -4.4,   0.73253, 2,    5836.38, -124.4,   0.73253, 3,    5836.38,  115.6,   0.73253
"SCN_CN15_9017_CEI201_ATV", 13.8, 1,    5593.07,   -5.5,   0.70199, 2,    5593.06, -125.5,   0.70199, 3,    5593.06,  114.5,   0.70199
"SCN_CN15_9019_CEI201_ATV", 13.8, 1,    5593.22,   -5.5,   0.70201, 2,    5593.21, -125.5,   0.70201, 3,    5593.21,  114.5,   0.70201
"SCN_CN15_9019_CEI134C_ATV", 13.8, 1,    5669.03,   -5.1,   0.71153, 2,    5669.03, -125.1,   0.71152, 3,    5669.03,  114.9,   0.71152
"SCN_CN15_9020_CEI134C_ATV", 13.8, 1,    5669.01,   -5.1,   0.71152, 2,       5669, -125.1,   0.71152, 3,       5669,  114.9,   0.71152
"SCN_CN15_9022_CEI134C_ATV", 13.8, 1,    5668.78,   -5.1,   0.71149, 2,    5668.77, -125.1,   0.71149, 3,    5668.77,  114.9,   0.71149
"SCN_CN15_9021_CEI134C_ATV", 13.8, 1,    5668.72,   -5.1,   0.71149, 2,    5668.71, -125.1,   0.71149, 3,    5668.71,  114.9,   0.71149
"SCN_CN15_9023_CEI134C_ATV", 13.8, 1,    5668.68,   -5.1,   0.71148, 2,    5668.67, -125.1,   0.71148, 3,    5668.67,  114.9,   0.71148
"SCN_CN15_9034_CEI134C_ATV", 13.8, 1,    5668.62,   -5.1,   0.71147, 2,    5668.61, -125.1,   0.71147, 3,    5668.61,  114.9,   0.71147
"SCN_CN15_9035_CEI134C_ATV", 13.8, 1,    5668.56,   -5.1,   0.71147, 2,    5668.55, -125.1,   0.71146, 3,    5668.55,  114.9,   0.71146
"SCN_CN15_9036_CEI134C_ATV", 13.8, 1,    5668.51,   -5.1,   0.71146, 2,     5668.5, -125.1,   0.71146, 3,     5668.5,  114.9,   0.71146
"SCN_CN15_9024_CEI134B_ATV", 13.8, 1,    5673.03,   -5.1,   0.71203, 2,    5673.02, -125.1,   0.71203, 3,    5673.02,  114.9,   0.71203
"SCN_CN15_9027_CEI134B_ATV", 13.8, 1,    5672.99,   -5.1,   0.71202, 2,    5672.98, -125.1,   0.71202, 3,    5672.98,  114.9,   0.71202
"SCN_CN15_9026_CEI134B_ATV", 13.8, 1,    5672.97,   -5.1,   0.71202, 2,    5672.97, -125.1,   0.71202, 3,    5672.97,  114.9,   0.71202
"SCN_CN15_9028_CEI134B_ATV", 13.8, 1,    5672.96,   -5.1,   0.71202, 2,    5672.95, -125.1,   0.71202, 3,    5672.95,  114.9,   0.71202
"SCN_CN15_9011_CEI134_ATV", 13.8, 1,    5693.03,   -5.0,   0.71454, 2,    5693.02, -125.0,   0.71454, 3,    5693.02,  115.0,   0.71454
"SCN_CN15_9009_CEI134A_ATV", 13.8, 1,    5692.13,   -5.0,   0.71442, 2,    5692.12, -125.0,   0.71442, 3,    5692.12,  115.0,   0.71442
"SCN_CN15_9002_CEI134_ATV", 13.8, 1,    5695.23,   -5.0,   0.71481, 2,    5695.22, -125.0,   0.71481, 3,    5695.22,  115.0,   0.71481
"SCN_CN15_9003_CEI134_ATV", 13.8, 1,    5695.25,   -5.0,   0.71482, 2,    5695.25, -125.0,   0.71482, 3,    5695.25,  115.0,   0.71482
"SCN_CN15_9101_CEI109", 13.8, 1,    5698.37,   -5.0,   0.71521, 2,    5698.36, -125.0,   0.71521, 3,    5698.36,  115.0,   0.71521
"SCN_CN15_9102_CEI109", 13.8, 1,    5698.32,   -5.0,    0.7152, 2,    5698.31, -125.0,    0.7152, 3,    5698.31,  115.0,    0.7152
"SCN_CN15_9103_CEI109", 13.8, 1,    5698.29,   -5.0,    0.7152, 2,    5698.28, -125.0,    0.7152, 3,    5698.28,  115.0,    0.7152
"SCN_CN15_9104_CEI109", 13.8, 1,    5698.25,   -5.0,   0.71519, 2,    5698.24, -125.0,   0.71519, 3,    5698.24,  115.0,   0.71519
"SCN_CN15_9105_CEI109", 13.8, 1,    5698.22,   -5.0,   0.71519, 2,    5698.21, -125.0,   0.71519, 3,    5698.21,  115.0,   0.71519
"SCN_CN15_9106_CEI109", 13.8, 1,    5698.19,   -5.0,   0.71518, 2,    5698.18, -125.0,   0.71518, 3,    5698.18,  115.0,   0.71518
"SCN_CN15_9108_CEI109", 13.8, 1,    5698.15,   -5.0,   0.71518, 2,    5698.14, -125.0,   0.71518, 3,    5698.14,  115.0,   0.71518
"SCN_CN15_9109_CEI109", 13.8, 1,    5698.11,   -5.0,   0.71518, 2,     5698.1, -125.0,   0.71517, 3,     5698.1,  115.0,   0.71517
"SCN_CN15_9110_CEI109", 13.8, 1,    5698.08,   -5.0,   0.71517, 2,    5698.07, -125.0,   0.71517, 3,    5698.07,  115.0,   0.71517
"SCN_CN15_9111_CEI109", 13.8, 1,    5698.04,   -5.0,   0.71517, 2,    5698.03, -125.0,   0.71517, 3,    5698.03,  115.0,   0.71517
"SCN_CN15_9112_CEI109", 13.8, 1,    5698.02,   -5.0,   0.71516, 2,    5698.02, -125.0,   0.71516, 3,    5698.02,  115.0,   0.71516
"SCN_CN15_9113_CEI109", 13.8, 1,       5698,   -5.0,   0.71516, 2,    5697.99, -125.0,   0.71516, 3,    5697.99,  115.0,   0.71516
"SCN_CN15_9114_CEI109", 13.8, 1,    5697.96,   -5.0,   0.71516, 2,    5697.96, -125.0,   0.71516, 3,    5697.96,  115.0,   0.71516
"SCN_CN15_9115_CEI109", 13.8, 1,     5697.9,   -5.0,   0.71515, 2,    5697.89, -125.0,   0.71515, 3,    5697.89,  115.0,   0.71515
"SCN_CN15_9116_CEI109", 13.8, 1,    5697.87,   -5.0,   0.71515, 2,    5697.87, -125.0,   0.71514, 3,    5697.87,  115.0,   0.71514
"SCN_CN15_9010_CEI120", 13.8, 1,    5761.44,   -4.8,   0.72312, 2,    5761.43, -124.8,   0.72312, 3,    5761.43,  115.2,   0.72312
"SCN_CN15_9011_CEI120", 13.8, 1,    5763.62,   -4.8,    0.7234, 2,    5763.62, -124.8,    0.7234, 3,    5763.62,  115.2,    0.7234
"SCN_CN15_9045_CEI130_ATV", 13.8, 1,    5841.38,   -4.5,   0.73316, 2,    5841.37, -124.5,   0.73316, 3,    5841.37,  115.5,   0.73316
"SCN_CN15_9044_CEI130_ATV", 13.8, 1,    5841.37,   -4.5,   0.73316, 2,    5841.36, -124.5,   0.73315, 3,    5841.36,  115.5,   0.73315
"SCN_CN15_9043_CEI130_ATV", 13.8, 1,    5841.29,   -4.5,   0.73315, 2,    5841.28, -124.5,   0.73314, 3,    5841.28,  115.5,   0.73314
"SCN_CN15_9014_CEI69B", 13.8, 1,    5980.35,   -4.1,    0.7506, 2,    5980.34, -124.1,    0.7506, 3,    5980.34,  115.9,    0.7506
"SCN_CN15_9015_CEI69B", 13.8, 1,    5981.17,   -4.1,    0.7507, 2,    5981.16, -124.1,    0.7507, 3,    5981.16,  115.9,    0.7507
"SCN_CN15_9559_CEI109", 13.8, 1,    5687.99,   -5.1,    0.7139, 2,    5687.98, -125.1,    0.7139, 3,    5687.98,  114.9,    0.7139
"SCN_CN15_9570_CEI109", 13.8, 1,    5687.98,   -5.1,    0.7139, 2,    5687.97, -125.1,    0.7139, 3,    5687.97,  114.9,    0.7139
"SCN_CN15_9558_CEI109", 13.8, 1,    5693.93,   -5.1,   0.71465, 2,    5693.92, -125.1,   0.71465, 3,    5693.92,  114.9,   0.71465
"SCN_CN15_9560_CEI109", 13.8, 1,    5683.61,   -5.1,   0.71336, 2,     5683.6, -125.1,   0.71335, 3,     5683.6,  114.9,   0.71335
"SCN_CN15_9555_CEI109", 13.8, 1,    5700.76,   -5.1,   0.71551, 2,    5700.75, -125.1,   0.71551, 3,    5700.75,  114.9,   0.71551
"SCN_CN15_9552_CEI109", 13.8, 1,    5705.79,   -5.1,   0.71614, 2,    5705.78, -125.1,   0.71614, 3,    5705.78,  114.9,   0.71614
"SCN_CN15_9550_CEI109", 13.8, 1,    5710.19,   -5.0,   0.71669, 2,    5710.18, -125.0,   0.71669, 3,    5710.18,  115.0,   0.71669
"SCN_CN15_9548_CEI109", 13.8, 1,    5714.41,   -5.0,   0.71722, 2,     5714.4, -125.0,   0.71722, 3,     5714.4,  115.0,   0.71722
"SCN_CN15_9017_CEI109", 13.8, 1,    5720.15,   -5.0,   0.71794, 2,    5720.15, -125.0,   0.71794, 3,    5720.15,  115.0,   0.71794
"SCN_CN15_9548_CEI109_S", 13.8, 1,    5714.41,   -5.0,   0.71722, 2,     5714.4, -125.0,   0.71722, 3,     5714.4,  115.0,   0.71722
"SCN_CN15_9016_CEI109", 13.8, 1,    5720.03,   -5.0,   0.71793, 2,    5720.02, -125.0,   0.71793, 3,    5720.02,  115.0,   0.71793
"SCN_CN15_9014_CEI109", 13.8, 1,    5719.85,   -5.0,    0.7179, 2,    5719.85, -125.0,    0.7179, 3,    5719.85,  115.0,    0.7179
"SCN_CN15_9013_CEI109", 13.8, 1,    5719.78,   -5.0,   0.71789, 2,    5719.77, -125.0,   0.71789, 3,    5719.77,  115.0,   0.71789
"SCN_CN15_9012_CEI109", 13.8, 1,    5719.65,   -5.0,   0.71788, 2,    5719.65, -125.0,   0.71788, 3,    5719.65,  115.0,   0.71788
"SCN_CN15_9008_CEI109", 13.8, 1,    5719.56,   -5.0,   0.71787, 2,    5719.55, -125.0,   0.71787, 3,    5719.55,  115.0,   0.71787
"SCN_CN15_9009_CEI109", 13.8, 1,    5719.51,   -5.0,   0.71786, 2,     5719.5, -125.0,   0.71786, 3,     5719.5,  115.0,   0.71786
"SCN_CN15_9010_CEI109", 13.8, 1,    5719.47,   -5.0,   0.71786, 2,    5719.46, -125.0,   0.71785, 3,    5719.46,  115.0,   0.71785
"SCN_CN15_9011_CEI109", 13.8, 1,    5719.43,   -5.0,   0.71785, 2,    5719.42, -125.0,   0.71785, 3,    5719.42,  115.0,   0.71785
"SCN_CN15_9547_CEI109", 13.8, 1,    5714.33,   -5.0,   0.71721, 2,    5714.32, -125.0,   0.71721, 3,    5714.32,  115.0,   0.71721
"SCN_CN15_9007_CEI109", 13.8, 1,    5719.52,   -5.0,   0.71786, 2,    5719.51, -125.0,   0.71786, 3,    5719.51,  115.0,   0.71786
"SCN_CN15_9006_CEI109", 13.8, 1,     5719.5,   -5.0,   0.71786, 2,    5719.49, -125.0,   0.71786, 3,    5719.49,  115.0,   0.71786
"SCN_CN15_9005_CEI109", 13.8, 1,    5719.47,   -5.0,   0.71786, 2,    5719.46, -125.0,   0.71785, 3,    5719.46,  115.0,   0.71785
"SCN_CN15_9004_CEI109", 13.8, 1,    5719.45,   -5.0,   0.71785, 2,    5719.44, -125.0,   0.71785, 3,    5719.44,  115.0,   0.71785
"SCN_CN15_9002_CEI109", 13.8, 1,    5860.12,   -4.4,   0.73551, 2,    5860.12, -124.4,   0.73551, 3,    5860.12,  115.6,   0.73551
"SCN_CN15_9003_CEI109", 13.8, 1,    5860.12,   -4.4,   0.73551, 2,    5860.12, -124.4,   0.73551, 3,    5860.12,  115.6,   0.73551
"SCN_CN15_9001_CEI109", 13.8, 1,    5860.12,   -4.4,   0.73551, 2,    5860.12, -124.4,   0.73551, 3,    5860.12,  115.6,   0.73551
"SCN_CN15_9122_CEI201_ATV", 13.8, 1,    5860.12,   -4.4,   0.73551, 2,    5860.12, -124.4,   0.73551, 3,    5860.12,  115.6,   0.73551
"SCN_CN15_9241_CEI109", 13.8, 1,    5632.23,   -5.3,   0.70691, 2,    5632.22, -125.3,   0.70691, 3,    5632.22,  114.7,   0.70691
"SCN_CN15_9204_CEI109", 13.8, 1,    5632.24,   -5.3,   0.70691, 2,    5632.23, -125.3,   0.70691, 3,    5632.23,  114.7,   0.70691
"SCN_CN15_9242_CEI109", 13.8, 1,    5632.22,   -5.3,    0.7069, 2,    5632.21, -125.3,    0.7069, 3,    5632.21,  114.7,    0.7069
"SCN_CN15_9243_CEI109", 13.8, 1,     5632.2,   -5.3,    0.7069, 2,     5632.2, -125.3,    0.7069, 3,     5632.2,  114.7,    0.7069
"SCN_CN15_9244_CEI109", 13.8, 1,    5632.19,   -5.3,    0.7069, 2,    5632.18, -125.3,    0.7069, 3,    5632.18,  114.7,    0.7069
"SCN_CN15_9245_CEI109", 13.8, 1,    5632.17,   -5.3,    0.7069, 2,    5632.16, -125.3,    0.7069, 3,    5632.16,  114.7,    0.7069
"SCN_CN15_9190_CEI109", 13.8, 1,    5630.97,   -5.4,   0.70675, 2,    5630.97, -125.4,   0.70675, 3,    5630.96,  114.6,   0.70675
"SCN_CN15_9191_CEI109", 13.8, 1,    5630.95,   -5.4,   0.70675, 2,    5630.94, -125.4,   0.70674, 3,    5630.94,  114.6,   0.70674
"SCN_CN15_9166_CEI109", 13.8, 1,    5630.91,   -5.4,   0.70674, 2,     5630.9, -125.4,   0.70674, 3,     5630.9,  114.6,   0.70674
"SCN_CN15_9167_CEI109", 13.8, 1,    5630.91,   -5.4,   0.70674, 2,     5630.9, -125.4,   0.70674, 3,     5630.9,  114.6,   0.70674
"SCN_CN15_9168_CEI109", 13.8, 1,     5630.9,   -5.4,   0.70674, 2,    5630.89, -125.4,   0.70674, 3,    5630.89,  114.6,   0.70674
"SCN_CN15_9169_CEI109", 13.8, 1,    5630.89,   -5.4,   0.70674, 2,    5630.88, -125.4,   0.70674, 3,    5630.88,  114.6,   0.70674
"SCN_CN15_9183_CEI109", 13.8, 1,    5630.87,   -5.4,   0.70674, 2,    5630.87, -125.4,   0.70674, 3,    5630.86,  114.6,   0.70674
"SCN_CN15_9330_CEI109", 13.8, 1,    5600.96,   -5.5,   0.70298, 2,    5600.95, -125.5,   0.70298, 3,    5600.95,  114.5,   0.70298
"SCN_CN15_9329_CEI109", 13.8, 1,    5601.54,   -5.5,   0.70305, 2,    5601.53, -125.5,   0.70305, 3,    5601.53,  114.5,   0.70305
"SCN_CN15_9328_CEI109", 13.8, 1,    5601.93,   -5.5,    0.7031, 2,    5601.93, -125.5,    0.7031, 3,    5601.92,  114.5,    0.7031
"SCN_CN15_9165_CEI068", 13.8, 1,    6058.66,   -3.9,   0.76043, 2,    6058.66, -123.9,   0.76043, 3,    6058.66,  116.1,   0.76043
"SCN_CN15_9166_CEI068", 13.8, 1,     6058.6,   -3.9,   0.76042, 2,     6058.6, -123.9,   0.76042, 3,     6058.6,  116.1,   0.76042
"SCN_CN15_9327_CEI109", 13.8, 1,    5602.63,   -5.5,   0.70319, 2,    5602.62, -125.5,   0.70319, 3,    5602.62,  114.5,   0.70319
"SCN_CN15_9399_CEI109", 13.8, 1,    5603.28,   -5.5,   0.70327, 2,    5603.27, -125.5,   0.70327, 3,    5603.27,  114.5,   0.70327
"SCN_CN15_9029_CEI160_ATV", 13.8, 1,    5603.24,   -5.5,   0.70327, 2,    5603.23, -125.5,   0.70327, 3,    5603.23,  114.5,   0.70327
"SCN_CN15_9057_CEI075", 13.8, 1,    5749.41,   -4.5,   0.72161, 2,     5749.4, -124.5,   0.72161, 3,     5749.4,  115.5,   0.72161
"SCN_CN15_9054_CEIRJ006_ATV", 13.8, 1,     5749.4,   -4.5,   0.72161, 2,    5749.39, -124.5,   0.72161, 3,    5749.39,  115.5,   0.72161
"SCN_CN15_9040_CEI77A_ATV", 13.8, 1,    7027.92,   -2.1,   0.88208, 2,    7027.92, -122.1,   0.88208, 3,    7027.92,  117.9,   0.88208
"SCN_CN15_9042_CEI77A_ATV", 13.8, 1,    7027.88,   -2.1,   0.88208, 2,    7027.88, -122.1,   0.88208, 3,    7027.88,  117.9,   0.88208
"SCN_CN15_9043_CEI77A_ATV", 13.8, 1,    7027.84,   -2.1,   0.88207, 2,    7027.84, -122.1,   0.88207, 3,    7027.84,  117.9,   0.88207
"SCN_CN15_9190_CEI77A_ATV", 13.8, 1,    7809.53,   -0.6,   0.98018, 2,    7809.52, -120.6,   0.98018, 3,    7809.52,  119.4,   0.98018
"SCN_CN15_9194_CEI77A_ATV", 13.8, 1,    7824.88,   -0.6,   0.98211, 2,    7824.88, -120.6,   0.98211, 3,    7824.88,  119.4,   0.98211
"SCN_CN15_9195_CEI77A_ATV", 13.8, 1,    7850.94,   -0.5,   0.98538, 2,    7850.94, -120.5,   0.98538, 3,    7850.94,  119.5,   0.98538
"SCN_CN15_9196_CEI77A_ATV", 13.8, 1,    7876.85,   -0.5,   0.98863, 2,    7876.85, -120.5,   0.98863, 3,    7876.85,  119.5,   0.98863
"SCN_CN15_9197_CEI77A_ATV", 13.8, 1,    7904.95,   -0.4,   0.99216, 2,    7904.95, -120.4,   0.99216, 3,    7904.95,  119.6,   0.99216
"SCN_CN15_9198_CEI77A_ATV", 13.8, 1,    7913.63,   -0.4,   0.99325, 2,    7913.63, -120.4,   0.99325, 3,    7913.63,  119.6,   0.99325
"SCN_CN15_9200_CEI77A_ATV", 13.8, 1,    7556.31,   -1.2,    0.9484, 2,    7556.31, -121.2,    0.9484, 3,    7556.31,  118.8,    0.9484
"SCN_CN15_9201_CEI77A_ATV", 13.8, 1,    7556.35,   -1.2,    0.9484, 2,    7556.35, -121.2,    0.9484, 3,    7556.35,  118.8,    0.9484
"SCN_CN15_9039_CEI076", 13.8, 1,    6201.44,   -3.6,   0.77835, 2,    6201.43, -123.6,   0.77835, 3,    6201.43,  116.4,   0.77835
"SCN_CN15_9041_CEI076", 13.8, 1,    6201.44,   -3.6,   0.77835, 2,    6201.43, -123.6,   0.77835, 3,    6201.43,  116.4,   0.77835
"SCN_CN15_9042_CEI076", 13.8, 1,    6201.44,   -3.6,   0.77835, 2,    6201.43, -123.6,   0.77835, 3,    6201.43,  116.4,   0.77835
"SCN_CN15_9044_CEI076", 13.8, 1,    6201.44,   -3.6,   0.77835, 2,    6201.43, -123.6,   0.77835, 3,    6201.43,  116.4,   0.77835
"SCN_CN15_9045_CEI076", 13.8, 1,    6201.44,   -3.6,   0.77835, 2,    6201.43, -123.6,   0.77835, 3,    6201.43,  116.4,   0.77835
"SCN_CN15_9057_CEI068", 13.8, 1,    6195.02,   -3.6,   0.77754, 2,    6195.01, -123.6,   0.77754, 3,    6195.01,  116.4,   0.77754
"SCN_CN15_9058_CEI068", 13.8, 1,    6195.02,   -3.6,   0.77754, 2,    6195.01, -123.6,   0.77754, 3,    6195.01,  116.4,   0.77754
"SCN_CN15_9236_CEI068", 13.8, 1,    6195.01,   -3.6,   0.77754, 2,    6195.01, -123.6,   0.77754, 3,    6195.01,  116.4,   0.77754
"SCN_CN15_9240_CEI068", 13.8, 1,    6195.01,   -3.6,   0.77754, 2,       6195, -123.6,   0.77754, 3,       6195,  116.4,   0.77754
"SCN_CN15_9063_CEI072", 13.8, 1,    6793.97,   -2.5,   0.85272, 2,    6793.97, -122.5,   0.85272, 3,    6793.97,  117.5,   0.85272
"SCN_CN15_CEI_FL_MT_37442", 13.8, 1,    6794.12,   -2.5,   0.85274, 2,    6794.12, -122.5,   0.85274, 3,    6794.12,  117.5,   0.85274
"SCN_CN15_9088_CEI072", 13.8, 1,    6794.12,   -2.5,   0.85274, 2,    6794.12, -122.5,   0.85274, 3,    6794.12,  117.5,   0.85274
"SCN_CN15_9089_CEI072", 13.8, 1,    6798.96,   -2.5,   0.85334, 2,    6798.95, -122.5,   0.85334, 3,    6798.95,  117.5,   0.85334
"SCN_CN15_9062_CEI072", 13.8, 1,    6788.02,   -2.5,   0.85197, 2,    6788.01, -122.5,   0.85197, 3,    6788.01,  117.5,   0.85197
"SCN_CN15_9061_CEI071", 13.8, 1,    6559.42,   -3.0,   0.82328, 2,    6559.42, -123.0,   0.82328, 3,    6559.42,  117.0,   0.82328
"SCN_CN15_9072_CEI071", 13.8, 1,    6559.37,   -3.0,   0.82327, 2,    6559.37, -123.0,   0.82327, 3,    6559.37,  117.0,   0.82327
"SCN_CN15_9073_CEI071", 13.8, 1,    6559.33,   -3.0,   0.82327, 2,    6559.33, -123.0,   0.82327, 3,    6559.33,  117.0,   0.82327
"SCN_CN15_9075_CEI071", 13.8, 1,    6559.29,   -3.0,   0.82326, 2,    6559.28, -123.0,   0.82326, 3,    6559.28,  117.0,   0.82326
"SCN_CN15_9078_CEI071", 13.8, 1,    6559.24,   -3.0,   0.82326, 2,    6559.24, -123.0,   0.82326, 3,    6559.24,  117.0,   0.82326
"SCN_CN15_9079_CEI071", 13.8, 1,    6559.19,   -3.0,   0.82325, 2,    6559.19, -123.0,   0.82325, 3,    6559.19,  117.0,   0.82325
"SCN_CN15_9080_CEI071", 13.8, 1,    6559.16,   -3.0,   0.82325, 2,    6559.16, -123.0,   0.82325, 3,    6559.16,  117.0,   0.82325
"SCN_CN15_9081_CEI071", 13.8, 1,    6559.12,   -3.0,   0.82324, 2,    6559.11, -123.0,   0.82324, 3,    6559.11,  117.0,   0.82324
"SCN_CN15_9082_CEI071", 13.8, 1,    6559.07,   -3.0,   0.82323, 2,    6559.06, -123.0,   0.82323, 3,    6559.06,  117.0,   0.82323
"SCN_CN15_9083_CEI071", 13.8, 1,    6559.03,   -3.0,   0.82323, 2,    6559.02, -123.0,   0.82323, 3,    6559.02,  117.0,   0.82323
"SCN_CN15_9084_CEI071", 13.8, 1,    6558.98,   -3.0,   0.82322, 2,    6558.97, -123.0,   0.82322, 3,    6558.98,  117.0,   0.82322
"SCN_CN15_9145_CEI220_ATV", 13.8, 1,    5754.31,   -4.9,   0.72223, 2,    5754.31, -124.9,   0.72223, 3,    5754.31,  115.1,   0.72223
"SCN_CN15_9146_CEI220_ATV", 13.8, 1,    5754.21,   -4.9,   0.72222, 2,     5754.2, -124.9,   0.72222, 3,     5754.2,  115.1,   0.72222
"SCN_CN15_9004_CEI220_ATV", 13.8, 1,    5859.92,   -4.4,   0.73548, 2,    5859.91, -124.4,   0.73548, 3,    5859.91,  115.6,   0.73548
"SCN_CN15_9005_CEI220_ATV", 13.8, 1,    5859.91,   -4.4,   0.73548, 2,     5859.9, -124.4,   0.73548, 3,     5859.9,  115.6,   0.73548
"SCN_CN15_9088_CEI201_ATV", 13.8, 1,     5850.7,   -4.4,   0.73433, 2,    5850.69, -124.4,   0.73433, 3,    5850.69,  115.6,   0.73433
"SCN_CN15_9089_CEI201_ATV", 13.8, 1,    5850.72,   -4.4,   0.73433, 2,    5850.71, -124.4,   0.73433, 3,    5850.71,  115.6,   0.73433
"SCN_CN15_9016_CEIRJ003", 13.8, 1,    5851.43,   -4.4,   0.73442, 2,    5851.42, -124.4,   0.73442, 3,    5851.42,  115.6,   0.73442
"SCN_CN15_9089_CEI201_ATV_S", 13.8, 1,    5850.72,   -4.4,   0.73433, 2,    5850.71, -124.4,   0.73433, 3,    5850.71,  115.6,   0.73433
"SCN_CN15_9123_CEI69B", 13.8, 1,    5849.71,   -4.4,    0.7342, 2,     5849.7, -124.4,    0.7342, 3,     5849.7,  115.6,    0.7342
"SCN_CN15_9121_CEI69B", 13.8, 1,     5847.4,   -4.4,   0.73391, 2,    5847.39, -124.4,   0.73391, 3,    5847.39,  115.6,   0.73391
"SCN_CN15_9119_CEI69B", 13.8, 1,    5844.57,   -4.4,   0.73356, 2,    5844.56, -124.4,   0.73356, 3,    5844.56,  115.6,   0.73356
"SCN_CN15_9276_CEI109", 13.8, 1,    5674.31,   -5.2,   0.71219, 2,     5674.3, -125.2,   0.71219, 3,     5674.3,  114.8,   0.71219
"SCN_CN15_9277_CEI109", 13.8, 1,    5672.01,   -5.2,    0.7119, 2,    5672.01, -125.2,    0.7119, 3,    5672.01,  114.8,    0.7119
"SCN_CN15_9118_CEI69B", 13.8, 1,    5841.91,   -4.4,   0.73322, 2,     5841.9, -124.4,   0.73322, 3,     5841.9,  115.6,   0.73322
"SCN_CN15_9114_CEI230_ATV", 13.8, 1,    5835.24,   -4.4,   0.73239, 2,    5835.23, -124.4,   0.73239, 3,    5835.23,  115.6,   0.73239
"SCN_CN15_9113_CEI230_ATV", 13.8, 1,    5830.39,   -4.4,   0.73178, 2,    5830.38, -124.4,   0.73178, 3,    5830.38,  115.6,   0.73178
"SCN_CN15_9112_CEI230_ATV", 13.8, 1,    5821.26,   -4.4,   0.73063, 2,    5821.25, -124.4,   0.73063, 3,    5821.25,  115.6,   0.73063
"SCN_CN15_9111_CEI230_ATV_S", 13.8, 1,    5820.49,   -4.4,   0.73054, 2,    5820.48, -124.4,   0.73053, 3,    5820.48,  115.6,   0.73053
"SCN_CN15_9110_CEI230_ATV", 13.8, 1,    5820.46,   -4.4,   0.73053, 2,    5820.45, -124.4,   0.73053, 3,    5820.45,  115.6,   0.73053
"SCN_CN15_9111_CEI230_ATV", 13.8, 1,    5820.49,   -4.4,   0.73054, 2,    5820.48, -124.4,   0.73053, 3,    5820.48,  115.6,   0.73053
"SCN_CN15_9109_CEI230_ATV", 13.8, 1,    5820.44,   -4.4,   0.73053, 2,    5820.43, -124.4,   0.73053, 3,    5820.43,  115.6,   0.73053
"SCN_CN15_9108_CEI230_ATV", 13.8, 1,    5820.41,   -4.4,   0.73053, 2,     5820.4, -124.4,   0.73052, 3,     5820.4,  115.6,   0.73052
"SCN_CN15_9107_CEI230_ATV", 13.8, 1,    5820.39,   -4.4,   0.73052, 2,    5820.39, -124.4,   0.73052, 3,    5820.39,  115.6,   0.73052
"SCN_CN15_9106_CEI230_ATV", 13.8, 1,    5820.38,   -4.4,   0.73052, 2,    5820.37, -124.4,   0.73052, 3,    5820.37,  115.6,   0.73052
"SCN_CN15_9278_CEI109", 13.8, 1,    5669.97,   -5.2,   0.71164, 2,    5669.97, -125.2,   0.71164, 3,    5669.97,  114.8,   0.71164
"SCN_CN15_9104_CEI230_ATV", 13.8, 1,    5820.36,   -4.4,   0.73052, 2,    5820.35, -124.4,   0.73052, 3,    5820.35,  115.6,   0.73052
"SCN_CN15_9105_CEI230_ATV", 13.8, 1,    5820.35,   -4.4,   0.73052, 2,    5820.34, -124.4,   0.73052, 3,    5820.34,  115.6,   0.73052
"SCN_CN15_9103_CEI230_ATV", 13.8, 1,    5820.33,   -4.4,   0.73052, 2,    5820.32, -124.4,   0.73051, 3,    5820.32,  115.6,   0.73051
"SCN_CN15_9102_CEI230_ATV", 13.8, 1,    5820.32,   -4.4,   0.73051, 2,    5820.31, -124.4,   0.73051, 3,    5820.31,  115.6,   0.73051
"SCN_CN15_9100_CEI230_ATV", 13.8, 1,     5820.3,   -4.4,   0.73051, 2,    5820.29, -124.4,   0.73051, 3,    5820.29,  115.6,   0.73051
"SCN_CN15_9099_CEI230_ATV", 13.8, 1,    5820.29,   -4.4,   0.73051, 2,    5820.28, -124.4,   0.73051, 3,    5820.28,  115.6,   0.73051
"SCN_CN15_9098_CEI230_ATV", 13.8, 1,    5820.28,   -4.4,   0.73051, 2,    5820.27, -124.4,   0.73051, 3,    5820.27,  115.6,   0.73051
"SCN_CN15_9097_CEI230_ATV", 13.8, 1,    5820.26,   -4.4,   0.73051, 2,    5820.25, -124.4,   0.73051, 3,    5820.25,  115.6,   0.73051
"SCN_CN15_9096_CEI230_ATV", 13.8, 1,    5820.25,   -4.4,    0.7305, 2,    5820.24, -124.4,    0.7305, 3,    5820.24,  115.6,    0.7305
"SCN_CN15_9094_CEI230_ATV", 13.8, 1,    5820.24,   -4.4,    0.7305, 2,    5820.23, -124.4,    0.7305, 3,    5820.23,  115.6,    0.7305
"SCN_CN15_9281_CEI109", 13.8, 1,    5668.47,   -5.2,   0.71146, 2,    5668.46, -125.2,   0.71145, 3,    5668.46,  114.8,   0.71145
"SCN_CN15_9095_CEI230_ATV", 13.8, 1,    5820.24,   -4.4,    0.7305, 2,    5820.23, -124.4,    0.7305, 3,    5820.23,  115.6,    0.7305
"SCN_CN15_9120_CEI230_ATV", 13.8, 1,    5811.06,   -4.4,   0.72935, 2,    5811.05, -124.4,   0.72935, 3,    5811.05,  115.6,   0.72935
"SCN_CN15_9115_CEI230_ATV", 13.8, 1,    5810.91,   -4.4,   0.72933, 2,     5810.9, -124.4,   0.72933, 3,     5810.9,  115.6,   0.72933
"SCN_CN15_9119_CEI230_ATV", 13.8, 1,    5801.89,   -4.4,    0.7282, 2,    5801.88, -124.4,    0.7282, 3,    5801.88,  115.6,    0.7282
"SCN_CN15_9331_CEI109", 13.8, 1,     5600.3,   -5.5,    0.7029, 2,    5600.29, -125.5,    0.7029, 3,    5600.29,  114.5,    0.7029
"SCN_CN15_9332_CEI109", 13.8, 1,    5599.92,   -5.5,   0.70285, 2,    5599.91, -125.5,   0.70285, 3,    5599.91,  114.5,   0.70285
"SCN_CN15_9118_CEI230_ATV", 13.8, 1,    5792.85,   -4.4,   0.72707, 2,    5792.84, -124.4,   0.72706, 3,    5792.84,  115.6,   0.72706
"SCN_CN15_9117_CEI230_ATV", 13.8, 1,    5783.46,   -4.4,   0.72589, 2,    5783.45, -124.4,   0.72589, 3,    5783.45,  115.6,   0.72589
"SCN_CN15_9116_CEI230_ATV", 13.8, 1,    5774.56,   -4.4,   0.72477, 2,    5774.55, -124.4,   0.72477, 3,    5774.55,  115.6,   0.72477
"SCN_CN15_9014_CEIRJ003", 13.8, 1,    5766.02,   -4.4,    0.7237, 2,    5766.01, -124.4,    0.7237, 3,    5766.01,  115.6,    0.7237
"SCN_CN15_9002_CEI075", 13.8, 1,    5764.94,   -4.4,   0.72356, 2,    5764.93, -124.4,   0.72356, 3,    5764.93,  115.6,   0.72356
"SCN_CN15_9003_CEI075", 13.8, 1,     5763.8,   -4.4,   0.72342, 2,    5763.79, -124.4,   0.72342, 3,    5763.79,  115.6,   0.72342
"SCN_CN15_9282_CEI109", 13.8, 1,    5667.05,   -5.2,   0.71128, 2,    5667.04, -125.2,   0.71128, 3,    5667.04,  114.8,   0.71128
"SCN_CN15_9004_CEI075", 13.8, 1,    5762.53,   -4.4,   0.72326, 2,    5762.52, -124.4,   0.72326, 3,    5762.52,  115.6,   0.72326
"SCN_CN15_9052_CEIRJ006_ATV", 13.8, 1,    5763.78,   -4.4,   0.72342, 2,    5763.77, -124.4,   0.72342, 3,    5763.77,  115.6,   0.72342
"SCN_CN15_9005_CEI075", 13.8, 1,    5761.21,   -4.4,   0.72309, 2,     5761.2, -124.4,   0.72309, 3,     5761.2,  115.6,   0.72309
"SCN_CN15_9006_CEI075", 13.8, 1,    5759.62,   -4.5,    0.7229, 2,    5759.61, -124.5,   0.72289, 3,    5759.61,  115.5,   0.72289
"SCN_CN15_9007_CEI075", 13.8, 1,    5758.41,   -4.5,   0.72274, 2,     5758.4, -124.5,   0.72274, 3,     5758.4,  115.5,   0.72274
"SCN_CN15_9008_CEI075", 13.8, 1,     5756.9,   -4.5,   0.72255, 2,    5756.89, -124.5,   0.72255, 3,    5756.89,  115.5,   0.72255
"SCN_CN15_9009_CEI075", 13.8, 1,    5755.41,   -4.5,   0.72237, 2,     5755.4, -124.5,   0.72237, 3,     5755.4,  115.5,   0.72237
"SCN_CN15_9169_CEI230_ATV", 13.8, 1,    5755.39,   -4.5,   0.72236, 2,    5755.38, -124.5,   0.72236, 3,    5755.38,  115.5,   0.72236
"SCN_CN15_9010_CEI075", 13.8, 1,    5755.18,   -4.5,   0.72234, 2,    5755.17, -124.5,   0.72234, 3,    5755.17,  115.5,   0.72234
"SCN_CN15_9011_CEI075", 13.8, 1,    5754.94,   -4.5,   0.72231, 2,    5754.93, -124.5,   0.72231, 3,    5754.93,  115.5,   0.72231
"SCN_CN15_9012_CEI075", 13.8, 1,    5754.71,   -4.5,   0.72228, 2,     5754.7, -124.5,   0.72228, 3,     5754.7,  115.5,   0.72228
"SCN_CN15_9283_CEI109", 13.8, 1,    5664.88,   -5.2,     0.711, 2,    5664.87, -125.2,     0.711, 3,    5664.87,  114.8,     0.711
"SCN_CN15_9013_CEI075", 13.8, 1,    5754.38,   -4.5,   0.72224, 2,    5754.37, -124.5,   0.72224, 3,    5754.37,  115.5,   0.72224
"SCN_CN15_9014_CEI075", 13.8, 1,    5754.07,   -4.5,    0.7222, 2,    5754.06, -124.5,    0.7222, 3,    5754.06,  115.5,    0.7222
"SCN_CN15_9015_CEI075", 13.8, 1,    5753.76,   -4.5,   0.72216, 2,    5753.75, -124.5,   0.72216, 3,    5753.75,  115.5,   0.72216
"SCN_CN15_9016_CEI075", 13.8, 1,    5753.45,   -4.5,   0.72212, 2,    5753.44, -124.5,   0.72212, 3,    5753.44,  115.5,   0.72212
"SCN_CN15_9017_CEI075", 13.8, 1,    5753.15,   -4.5,   0.72208, 2,    5753.14, -124.5,   0.72208, 3,    5753.14,  115.5,   0.72208
"SCN_CN15_9018_CEI075", 13.8, 1,    5752.83,   -4.5,   0.72204, 2,    5752.82, -124.5,   0.72204, 3,    5752.82,  115.5,   0.72204
"SCN_CN15_9019_CEI075", 13.8, 1,    5752.67,   -4.5,   0.72202, 2,    5752.66, -124.5,   0.72202, 3,    5752.66,  115.5,   0.72202
"SCN_CN15_9020_CEI075", 13.8, 1,    5752.51,   -4.5,     0.722, 2,     5752.5, -124.5,     0.722, 3,     5752.5,  115.5,     0.722
"SCN_CN15_9022_CEI075", 13.8, 1,    5752.22,   -4.5,   0.72197, 2,    5752.21, -124.5,   0.72197, 3,    5752.21,  115.5,   0.72197
"SCN_CN15_9023_CEI075", 13.8, 1,    5751.97,   -4.5,   0.72194, 2,    5751.96, -124.5,   0.72193, 3,    5751.96,  115.5,   0.72193
"SCN_CN15_9284_CEI109", 13.8, 1,     5663.2,   -5.2,   0.71079, 2,    5663.19, -125.2,   0.71079, 3,    5663.19,  114.8,   0.71079
"SCN_CN15_9024_CEI075", 13.8, 1,    5751.67,   -4.5,    0.7219, 2,    5751.66, -124.5,    0.7219, 3,    5751.66,  115.5,    0.7219
"SCN_CN15_9025_CEI075", 13.8, 1,    5751.39,   -4.5,   0.72186, 2,    5751.38, -124.5,   0.72186, 3,    5751.38,  115.5,   0.72186
"SCN_CN15_9072_CEI230_ATV", 13.8, 1,    5751.36,   -4.5,   0.72186, 2,    5751.35, -124.5,   0.72186, 3,    5751.35,  115.5,   0.72186
"SCN_CN15_9028_CEI075", 13.8, 1,    5750.75,   -4.5,   0.72178, 2,    5750.74, -124.5,   0.72178, 3,    5750.74,  115.5,   0.72178
"SCN_CN15_9029_CEI075", 13.8, 1,     5750.6,   -4.5,   0.72176, 2,    5750.59, -124.5,   0.72176, 3,    5750.59,  115.5,   0.72176
"SCN_CN15_9027_CEI075", 13.8, 1,    5750.89,   -4.5,    0.7218, 2,    5750.88, -124.5,    0.7218, 3,    5750.88,  115.5,    0.7218
"SCN_CN15_9026_CEI075", 13.8, 1,    5751.14,   -4.5,   0.72183, 2,    5751.13, -124.5,   0.72183, 3,    5751.13,  115.5,   0.72183
"SCN_CN15_9030_CEI075", 13.8, 1,    5750.54,   -4.5,   0.72176, 2,    5750.53, -124.5,   0.72175, 3,    5750.53,  115.5,   0.72175
"SCN_CN15_9074_CEI230_ATV", 13.8, 1,    5750.36,   -4.5,   0.72173, 2,    5750.35, -124.5,   0.72173, 3,    5750.35,  115.5,   0.72173
"SCN_CN15_9075_CEI230_ATV", 13.8, 1,    5750.25,   -4.5,   0.72172, 2,    5750.24, -124.5,   0.72172, 3,    5750.24,  115.5,   0.72172
"SCN_CN15_9292_CEI109_S", 13.8, 1,    5660.68,   -5.2,   0.71048, 2,    5660.67, -125.2,   0.71048, 3,    5660.67,  114.8,   0.71048
"SCN_CN15_9076_CEI230_ATV_S", 13.8, 1,    5750.17,   -4.5,   0.72171, 2,    5750.16, -124.5,   0.72171, 3,    5750.16,  115.5,   0.72171
"SCN_CN15_9076_CEI230_ATV", 13.8, 1,    5750.17,   -4.5,   0.72171, 2,    5750.16, -124.5,   0.72171, 3,    5750.16,  115.5,   0.72171
"SCN_CN15_9079_CEI230_ATV", 13.8, 1,    5750.08,   -4.5,    0.7217, 2,    5750.07, -124.5,    0.7217, 3,    5750.07,  115.5,    0.7217
"SCN_CN15_9078_CEI230_ATV", 13.8, 1,    5749.99,   -4.5,   0.72169, 2,    5749.98, -124.5,   0.72169, 3,    5749.98,  115.5,   0.72169
"SCN_CN15_9077_CEI230_ATV", 13.8, 1,    5750.06,   -4.5,    0.7217, 2,    5750.05, -124.5,   0.72169, 3,    5750.05,  115.5,   0.72169
"SCN_CN15_9080_CEI230_ATV", 13.8, 1,    5749.94,   -4.5,   0.72168, 2,    5749.93, -124.5,   0.72168, 3,    5749.93,  115.5,   0.72168
"SCN_CN15_9081_CEI230_ATV", 13.8, 1,    5749.84,   -4.5,   0.72167, 2,    5749.83, -124.5,   0.72167, 3,    5749.83,  115.5,   0.72167
"SCN_CN15_9082_CEI230_ATV", 13.8, 1,    5749.84,   -4.5,   0.72167, 2,    5749.83, -124.5,   0.72167, 3,    5749.83,  115.5,   0.72167
"SCN_CN15_9084_CEI230_ATV", 13.8, 1,     5749.8,   -4.5,   0.72166, 2,    5749.78, -124.5,   0.72166, 3,    5749.78,  115.5,   0.72166
"SCN_CN15_9085_CEI230_ATV", 13.8, 1,    5749.75,   -4.5,   0.72166, 2,    5749.74, -124.5,   0.72166, 3,    5749.74,  115.5,   0.72166
"SCN_CN15_9086_CEI230_ATV", 13.8, 1,    5749.71,   -4.5,   0.72165, 2,     5749.7, -124.5,   0.72165, 3,     5749.7,  115.5,   0.72165
"SCN_CN15_9292_CEI109", 13.8, 1,    5660.68,   -5.2,   0.71048, 2,    5660.67, -125.2,   0.71048, 3,    5660.67,  114.8,   0.71048
"SCN_CN15_9423_CEI109", 13.8, 1,    5660.61,   -5.2,   0.71047, 2,     5660.6, -125.2,   0.71047, 3,     5660.6,  114.8,   0.71047
"SCN_CN15_9087_CEI230_ATV", 13.8, 1,    5749.68,   -4.5,   0.72165, 2,    5749.67, -124.5,   0.72165, 3,    5749.67,  115.5,   0.72165
"SCN_CN15_9083_CEI230_ATV", 13.8, 1,     5749.8,   -4.5,   0.72166, 2,    5749.79, -124.5,   0.72166, 3,    5749.79,  115.5,   0.72166
"SCN_CN15_9088_CEI230_ATV", 13.8, 1,    5749.76,   -4.5,   0.72166, 2,    5749.75, -124.5,   0.72166, 3,    5749.75,  115.5,   0.72166
"SCN_CN15_9090_CEI230_ATV", 13.8, 1,    5749.73,   -4.5,   0.72165, 2,    5749.72, -124.5,   0.72165, 3,    5749.72,  115.5,   0.72165
"SCN_CN15_9084_CEI148_ATV", 13.8, 1,    5582.75,   -5.5,    0.7007, 2,    5582.74, -125.5,    0.7007, 3,    5582.74,  114.5,   0.70069
"SCN_CN15_9083_CEI148_ATV", 13.8, 1,    5583.34,   -5.5,   0.70077, 2,    5583.33, -125.5,   0.70077, 3,    5583.33,  114.5,   0.70077
"SCN_CN15_9086_CEI148_ATV", 13.8, 1,    5582.27,   -5.5,   0.70064, 2,    5582.26, -125.5,   0.70064, 3,    5582.26,  114.5,   0.70064
"SCN_CN15_9100_CEI201_ATV", 13.8, 1,    5836.34,   -4.4,   0.73252, 2,    5836.33, -124.4,   0.73252, 3,    5836.33,  115.6,   0.73252
"SCN_CN15_9102_CEI201_ATV", 13.8, 1,    5836.38,   -4.4,   0.73253, 2,    5836.38, -124.4,   0.73253, 3,    5836.38,  115.6,   0.73253
"SCN_CN15_9087_CEI148_ATV", 13.8, 1,    5581.31,   -5.5,   0.70051, 2,     5581.3, -125.5,   0.70051, 3,     5581.3,  114.5,   0.70051
"SCN_CN15_9088_CEI148_ATV", 13.8, 1,    5581.27,   -5.5,   0.70051, 2,    5581.26, -125.5,   0.70051, 3,    5581.26,  114.5,   0.70051
"SCN_CN15_9090_CEI148_ATV", 13.8, 1,    5581.18,   -5.5,    0.7005, 2,    5581.17, -125.5,    0.7005, 3,    5581.17,  114.5,    0.7005
"SCN_CN15_9424_CEI109", 13.8, 1,    5660.48,   -5.2,   0.71045, 2,    5660.47, -125.2,   0.71045, 3,    5660.47,  114.8,   0.71045
"SCN_CN15_9034_CEI148A_ATV", 13.8, 1,    5580.68,   -5.5,   0.70044, 2,    5580.67, -125.5,   0.70043, 3,    5580.67,  114.5,   0.70043
"SCN_CN15_9033_CEI148A_ATV", 13.8, 1,    5580.11,   -5.5,   0.70036, 2,     5580.1, -125.5,   0.70036, 3,     5580.1,  114.5,   0.70036
"SCN_CN15_9035_CEI148A_ATV", 13.8, 1,    5580.09,   -5.5,   0.70036, 2,    5580.08, -125.5,   0.70036, 3,    5580.08,  114.5,   0.70036
"SCN_CN15_9031_CEI148A_ATV", 13.8, 1,    5579.51,   -5.5,   0.70029, 2,     5579.5, -125.5,   0.70029, 3,     5579.5,  114.5,   0.70029
"SCN_CN15_9030_CEI148A_ATV", 13.8, 1,    5578.97,   -5.5,   0.70022, 2,    5578.96, -125.5,   0.70022, 3,    5578.96,  114.5,   0.70022
"SCN_CN15_9029_CEI148A_ATV_S", 13.8, 1,    5578.91,   -5.5,   0.70021, 2,     5578.9, -125.5,   0.70021, 3,     5578.9,  114.5,   0.70021
"SCN_CN15_9028_CEI148A_ATV", 13.8, 1,    5578.89,   -5.5,   0.70021, 2,    5578.88, -125.5,   0.70021, 3,    5578.88,  114.5,   0.70021
"SCN_CN15_9029_CEI148A_ATV", 13.8, 1,    5578.91,   -5.5,   0.70021, 2,     5578.9, -125.5,   0.70021, 3,     5578.9,  114.5,   0.70021
"SCN_CN15_9032_CEI148A_ATV", 13.8, 1,    5578.88,   -5.5,   0.70021, 2,    5578.87, -125.5,   0.70021, 3,    5578.87,  114.5,   0.70021
"SCN_CN15_9078_CEI201_ATV", 13.8, 1,    5578.85,   -5.5,   0.70021, 2,    5578.84, -125.5,    0.7002, 3,    5578.84,  114.5,    0.7002
"SCN_CN15_9075_CEI201_ATV", 13.8, 1,    5578.81,   -5.5,    0.7002, 2,    5578.81, -125.5,    0.7002, 3,     5578.8,  114.5,    0.7002
"SCN_CN15_9425_CEI109", 13.8, 1,    5660.37,   -5.2,   0.71044, 2,    5660.36, -125.2,   0.71044, 3,    5660.36,  114.8,   0.71044
"SCN_CN15_9025_CEI148A_ATV", 13.8, 1,    5578.43,   -5.5,   0.70015, 2,    5578.42, -125.5,   0.70015, 3,    5578.42,  114.5,   0.70015
"SCN_CN15_9023_CEI148A_ATV_S", 13.8, 1,     5577.4,   -5.6,   0.70002, 2,    5577.39, -125.6,   0.70002, 3,    5577.39,  114.4,   0.70002
"SCN_CN15_9028_CEI69A", 13.8, 1,    5577.38,   -5.6,   0.70002, 2,    5577.37, -125.6,   0.70002, 3,    5577.37,  114.4,   0.70002
"SCN_CN15_9023_CEI148A_ATV", 13.8, 1,     5577.4,   -5.6,   0.70002, 2,    5577.39, -125.6,   0.70002, 3,    5577.39,  114.4,   0.70002
"SCN_CN15_9022_CEI148A_ATV", 13.8, 1,    5577.35,   -5.6,   0.70002, 2,    5577.35, -125.6,   0.70002, 3,    5577.34,  114.4,   0.70002
"SCN_CN15_9021_CEI148A_ATV", 13.8, 1,     5577.3,   -5.6,   0.70001, 2,    5577.29, -125.6,   0.70001, 3,    5577.29,  114.4,   0.70001
"SCN_CN15_9020_CEI148A_ATV_S", 13.8, 1,    5577.27,   -5.6,   0.70001, 2,    5577.26, -125.6,   0.70001, 3,    5577.26,  114.4,   0.70001
"SCN_CN15_9020_CEI148A_ATV", 13.8, 1,    5577.27,   -5.6,   0.70001, 2,    5577.26, -125.6,   0.70001, 3,    5577.26,  114.4,   0.70001
"SCN_CN15_9019_CEI148A_ATV", 13.8, 1,    5577.26,   -5.6,   0.70001, 2,    5577.25, -125.6,   0.70001, 3,    5577.25,  114.4,   0.70001
"SCN_CN15_9001_CEI148A_ATV", 13.8, 1,    5574.37,   -5.6,   0.69964, 2,    5574.36, -125.6,   0.69964, 3,    5574.36,  114.4,   0.69964
"SCN_CN15_9002_CEI148A_ATV", 13.8, 1,    5574.42,   -5.6,   0.69965, 2,    5574.41, -125.6,   0.69965, 3,    5574.41,  114.4,   0.69965
"SCN_CN15_9003_CEI148A_ATV", 13.8, 1,    5574.45,   -5.6,   0.69965, 2,    5574.44, -125.6,   0.69965, 3,    5574.44,  114.4,   0.69965
"SCN_CN15_9005_CEI148A_ATV", 13.8, 1,    5574.47,   -5.6,   0.69966, 2,    5574.46, -125.6,   0.69966, 3,    5574.46,  114.4,   0.69966
"SCN_CN15_9426_CEI109", 13.8, 1,    5660.28,   -5.2,   0.71043, 2,    5660.27, -125.2,   0.71043, 3,    5660.27,  114.8,   0.71043
"SCN_CN15_9004_CEI148A_ATV", 13.8, 1,     5574.5,   -5.6,   0.69966, 2,    5574.49, -125.6,   0.69966, 3,    5574.49,  114.4,   0.69966
"SCN_CN15_9143_CEI220_ATV", 13.8, 1,    5754.46,   -4.9,   0.72225, 2,    5754.45, -124.9,   0.72225, 3,    5754.45,  115.1,   0.72225
"SCN_CN15_9144_CEI220_ATV", 13.8, 1,    5754.39,   -4.9,   0.72224, 2,    5754.38, -124.9,   0.72224, 3,    5754.38,  115.1,   0.72224
"SCN_CN15_9006_CEI148A_ATV", 13.8, 1,    5574.55,   -5.6,   0.69967, 2,    5574.54, -125.6,   0.69967, 3,    5574.54,  114.4,   0.69967
"SCN_CN15_9007_CEI148A_ATV", 13.8, 1,    5574.61,   -5.6,   0.69967, 2,     5574.6, -125.6,   0.69967, 3,     5574.6,  114.4,   0.69967
"SCN_CN15_9008_CEI148A_ATV", 13.8, 1,    5574.71,   -5.6,   0.69969, 2,     5574.7, -125.6,   0.69969, 3,     5574.7,  114.4,   0.69969
"SCN_CN15_9010_CEI148A_ATV", 13.8, 1,    5574.88,   -5.6,   0.69971, 2,    5574.87, -125.6,   0.69971, 3,    5574.87,  114.4,   0.69971
"SCN_CN15_9009_CEI148A_ATV", 13.8, 1,    5574.71,   -5.6,   0.69969, 2,     5574.7, -125.6,   0.69969, 3,     5574.7,  114.4,   0.69969
"SCN_CN15_9011_CEI148A_ATV", 13.8, 1,    5574.97,   -5.6,   0.69972, 2,    5574.97, -125.6,   0.69972, 3,    5574.97,  114.4,   0.69972
"SCN_CN15_9012_CEI148A_ATV", 13.8, 1,    5575.07,   -5.6,   0.69973, 2,    5575.06, -125.6,   0.69973, 3,    5575.06,  114.4,   0.69973
"SCN_CN15_9013_CEI148A_ATV", 13.8, 1,    5575.23,   -5.6,   0.69975, 2,    5575.22, -125.6,   0.69975, 3,    5575.22,  114.4,   0.69975
"SCN_CN15_9014_CEI148A_ATV", 13.8, 1,    5575.43,   -5.6,   0.69978, 2,    5575.42, -125.6,   0.69978, 3,    5575.42,  114.4,   0.69978
"SCN_CN15_9015_CEI148A_ATV", 13.8, 1,    5575.64,   -5.6,    0.6998, 2,    5575.63, -125.6,    0.6998, 3,    5575.63,  114.4,    0.6998
"SCN_CN15_9427_CEI109", 13.8, 1,    5660.17,   -5.2,   0.71041, 2,    5660.16, -125.2,   0.71041, 3,    5660.16,  114.8,   0.71041
"SCN_CN15_9016_CEI148A_ATV", 13.8, 1,    5575.85,   -5.6,   0.69983, 2,    5575.84, -125.6,   0.69983, 3,    5575.84,  114.4,   0.69983
"SCN_CN15_9017_CEI148A_ATV", 13.8, 1,    5575.95,   -5.6,   0.69984, 2,    5575.94, -125.6,   0.69984, 3,    5575.94,  114.4,   0.69984
"SCN_CN15_9018_CEI148A_ATV", 13.8, 1,    5576.07,   -5.6,   0.69986, 2,    5576.06, -125.6,   0.69986, 3,    5576.06,  114.4,   0.69986
"SCN_CN15_9020_CEI69A", 13.8, 1,    5576.38,   -5.6,    0.6999, 2,    5576.38, -125.6,    0.6999, 3,    5576.37,  114.4,    0.6999
"SCN_CN15_9018_CEI148A_ATV_S", 13.8, 1,    5576.07,   -5.6,   0.69986, 2,    5576.06, -125.6,   0.69986, 3,    5576.06,  114.4,   0.69986
"SCN_CN15_9019_CEI69A", 13.8, 1,    5576.28,   -5.6,   0.69988, 2,    5576.27, -125.6,   0.69988, 3,    5576.27,  114.4,   0.69988
"SCN_CN15_9018_CEI69A", 13.8, 1,    5576.19,   -5.6,   0.69987, 2,    5576.18, -125.6,   0.69987, 3,    5576.18,  114.4,   0.69987
"SCN_CN15_9017_CEI69A", 13.8, 1,    5576.12,   -5.6,   0.69986, 2,    5576.11, -125.6,   0.69986, 3,    5576.11,  114.4,   0.69986
"SCN_CN15_9016_CEI69A", 13.8, 1,    5576.11,   -5.6,   0.69986, 2,     5576.1, -125.6,   0.69986, 3,     5576.1,  114.4,   0.69986
"SCN_CN15_9015_CEI69A", 13.8, 1,    5576.11,   -5.6,   0.69986, 2,     5576.1, -125.6,   0.69986, 3,     5576.1,  114.4,   0.69986
"SCN_CN15_9428_CEI109", 13.8, 1,    5660.05,   -5.2,    0.7104, 2,    5660.04, -125.2,    0.7104, 3,    5660.04,  114.8,    0.7104
"SCN_CN15_9012_CEI69A_S", 13.8, 1,    5576.07,   -5.6,   0.69986, 2,    5576.06, -125.6,   0.69986, 3,    5576.06,  114.4,   0.69986
"SCN_CN15_9012_CEI69A", 13.8, 1,    5576.07,   -5.6,   0.69986, 2,    5576.06, -125.6,   0.69986, 3,    5576.06,  114.4,   0.69986
"SCN_CN15_9013_CEI69A", 13.8, 1,    5576.05,   -5.6,   0.69986, 2,    5576.04, -125.6,   0.69985, 3,    5576.04,  114.4,   0.69985
"SCN_CN15_9014_CEI69A", 13.8, 1,    5576.04,   -5.6,   0.69985, 2,    5576.03, -125.6,   0.69985, 3,    5576.03,  114.4,   0.69985
"SCN_CN15_9011_CEI69A", 13.8, 1,    5576.07,   -5.6,   0.69986, 2,    5576.06, -125.6,   0.69986, 3,    5576.06,  114.4,   0.69986
"SCN_CN15_9073_CEIRJ006_ATV", 13.8, 1,    5581.13,   -5.5,   0.70049, 2,    5581.12, -125.5,   0.70049, 3,    5581.12,  114.5,   0.70049
"SCN_CN15_9091_CEI148_ATV", 13.8, 1,    5581.12,   -5.5,   0.70049, 2,    5581.11, -125.5,   0.70049, 3,    5581.11,  114.5,   0.70049
"SCN_CN15_9092_CEI148_ATV", 13.8, 1,    5581.11,   -5.5,   0.70049, 2,     5581.1, -125.5,   0.70049, 3,     5581.1,  114.5,   0.70049
"SCN_CN15_9089_CEI148_ATV", 13.8, 1,     5581.1,   -5.5,   0.70049, 2,    5581.09, -125.5,   0.70049, 3,    5581.09,  114.5,   0.70049
"SCN_CN15_9042_CEI69A", 13.8, 1,    5581.21,   -5.5,    0.7005, 2,     5581.2, -125.5,    0.7005, 3,     5581.2,  114.5,    0.7005
"SCN_CN15_9100_CEI072", 13.8, 1,     6844.5,   -2.4,   0.85906, 2,     6844.5, -122.4,   0.85906, 3,     6844.5,  117.6,   0.85906
"SCN_CN15_9101_CEI072", 13.8, 1,    6844.41,   -2.4,   0.85905, 2,     6844.4, -122.4,   0.85905, 3,     6844.4,  117.6,   0.85905
"SCN_CN15_9102_CEI072", 13.8, 1,     6844.3,   -2.4,   0.85904, 2,     6844.3, -122.4,   0.85903, 3,     6844.3,  117.6,   0.85903
"SCN_CN15_9103_CEI072", 13.8, 1,     6844.2,   -2.4,   0.85902, 2,     6844.2, -122.4,   0.85902, 3,     6844.2,  117.6,   0.85902
"SCN_CN15_9104_CEI072", 13.8, 1,    6844.11,   -2.4,   0.85901, 2,     6844.1, -122.4,   0.85901, 3,     6844.1,  117.6,   0.85901
"SCN_CN15_9105_CEI072", 13.8, 1,       6844,   -2.4,     0.859, 2,       6844, -122.4,     0.859, 3,       6844,  117.6,     0.859
"SCN_CN15_9491_CEI109", 13.8, 1,    5601.13,   -5.5,     0.703, 2,    5601.12, -125.5,     0.703, 3,    5601.12,  114.5,     0.703
"SCN_CN15_9492_CEI109", 13.8, 1,    5601.01,   -5.5,   0.70299, 2,       5601, -125.5,   0.70299, 3,       5601,  114.5,   0.70299
"SCN_CN15_9106_CEI072", 13.8, 1,    6843.91,   -2.4,   0.85899, 2,    6843.91, -122.4,   0.85899, 3,    6843.91,  117.6,   0.85899
"SCN_CN15_9107_CEI072", 13.8, 1,    6843.71,   -2.4,   0.85896, 2,    6843.71, -122.4,   0.85896, 3,    6843.71,  117.6,   0.85896
"SCN_CN15_9108_CEI072", 13.8, 1,    6843.56,   -2.4,   0.85894, 2,    6843.56, -122.4,   0.85894, 3,    6843.56,  117.6,   0.85894
"SCN_CN15_9109_CEI072", 13.8, 1,    6843.48,   -2.4,   0.85893, 2,    6843.47, -122.4,   0.85893, 3,    6843.48,  117.6,   0.85893
"SCN_CN15_9110_CEI072", 13.8, 1,    6843.39,   -2.4,   0.85892, 2,    6843.39, -122.4,   0.85892, 3,    6843.39,  117.6,   0.85892
"SCN_CN15_9111_CEI072", 13.8, 1,    6843.29,   -2.4,   0.85891, 2,    6843.29, -122.4,   0.85891, 3,    6843.29,  117.6,   0.85891
"SCN_CN15_9112_CEI072", 13.8, 1,    6843.19,   -2.4,    0.8589, 2,    6843.18, -122.4,   0.85889, 3,    6843.19,  117.6,   0.85889
"SCN_CN15_9113_CEI072", 13.8, 1,    6843.08,   -2.4,   0.85888, 2,    6843.08, -122.4,   0.85888, 3,    6843.08,  117.6,   0.85888
...
"SCN_CN15_592-0899-22", 13.8, 1,    5971.24,   -4.1,   0.74946, 2,    5971.23, -124.1,   0.74945, 3,    5971.23,  115.9,   0.74945
"SCN_CN15_592-0899-22_S", 13.8, 1,    5971.24,   -4.1,   0.74946, 2,    5971.23, -124.1,   0.74945, 3,    5971.23,  115.9,   0.74945
"SCN_CN15_9013_CEI69B", 13.8, 1,    5988.35,   -4.0,    0.7516, 2,    5988.34, -124.0,    0.7516, 3,    5988.34,  116.0,    0.7516
"SCN_CN15_9015_CEI69B_S", 13.8, 1,    5981.17,   -4.1,    0.7507, 2,    5981.16, -124.1,    0.7507, 3,    5981.16,  115.9,    0.7507
"SCN_CN15_9012_CEI69B", 13.8, 1,    5996.99,   -4.0,   0.75269, 2,    5996.98, -124.0,   0.75269, 3,    5996.98,  116.0,   0.75269
"SCN_CN15_9011_CEI69B", 13.8, 1,    6005.45,   -4.0,   0.75375, 2,    6005.45, -124.0,   0.75375, 3,    6005.45,  116.0,   0.75375
"SCN_CN15_9162_CEI068", 13.8, 1,    6016.11,   -4.0,   0.75509, 2,     6016.1, -124.0,   0.75509, 3,     6016.1,  116.0,   0.75509
"SCN_CN15_9163_CEI068", 13.8, 1,    6027.27,   -3.9,   0.75649, 2,    6027.26, -123.9,   0.75649, 3,    6027.26,  116.1,   0.75649
"SCN_CN15_9164_CEI068", 13.8, 1,    6046.91,   -3.9,   0.75895, 2,     6046.9, -123.9,   0.75895, 3,     6046.9,  116.1,   0.75895
"SCN_CN15_9451_CEI109", 13.8, 1,    5659.21,   -5.2,   0.71029, 2,     5659.2, -125.2,   0.71029, 3,     5659.2,  114.8,   0.71029
"SCN_CN15_9169_CEI068", 13.8, 1,     6065.8,   -3.9,   0.76132, 2,    6065.79, -123.9,   0.76132, 3,    6065.79,  116.1,   0.76132
"SCN_CN15_9170_CEI068", 13.8, 1,    6065.97,   -3.9,   0.76135, 2,    6065.96, -123.9,   0.76134, 3,    6065.96,  116.1,   0.76134
"SCN_CN15_9170_CEI068_S", 13.8, 1,    6065.97,   -3.9,   0.76135, 2,    6065.96, -123.9,   0.76134, 3,    6065.96,  116.1,   0.76134
"SCN_CN15_9171_CEI068", 13.8, 1,    6086.28,   -3.8,   0.76389, 2,    6086.27, -123.8,   0.76389, 3,    6086.27,  116.2,   0.76389
"SCN_CN15_9172_CEI068", 13.8, 1,    6108.78,   -3.8,   0.76672, 2,    6108.77, -123.8,   0.76672, 3,    6108.77,  116.2,   0.76672
"SCN_CN15_9182_CEI068", 13.8, 1,    6134.92,   -3.7,      0.77, 2,    6134.91, -123.7,      0.77, 3,    6134.91,  116.3,      0.77
"SCN_CN15_9181_CEI068", 13.8, 1,    6134.88,   -3.7,   0.76999, 2,    6134.87, -123.7,   0.76999, 3,    6134.87,  116.3,   0.76999
"SCN_CN15_9182_CEI068_S", 13.8, 1,    6134.92,   -3.7,      0.77, 2,    6134.91, -123.7,      0.77, 3,    6134.91,  116.3,      0.77
"SCN_CN15_9183_CEI068", 13.8, 1,    6162.22,   -3.6,   0.77343, 2,    6162.21, -123.6,   0.77342, 3,    6162.21,  116.4,   0.77342
"SCN_CN15_9183_CEI068_S", 13.8, 1,    6162.22,   -3.6,   0.77343, 2,    6162.21, -123.6,   0.77342, 3,    6162.21,  116.4,   0.77342
"SCN_CN15_9186_CEI068", 13.8, 1,    6182.47,   -3.6,   0.77597, 2,    6182.46, -123.6,   0.77597, 3,    6182.46,  116.4,   0.77597
"SCN_CN15_9107_CEI068", 13.8, 1,    6194.98,   -3.6,   0.77754, 2,    6194.97, -123.6,   0.77754, 3,    6194.98,  116.4,   0.77754
"SCN_CN15_9450_CEI109", 13.8, 1,    5659.17,   -5.2,   0.71029, 2,    5659.16, -125.2,   0.71029, 3,    5659.16,  114.8,   0.71029
"SCN_CN15_9103_CEI068", 13.8, 1,    6208.75,   -3.5,   0.77927, 2,    6208.74, -123.5,   0.77927, 3,    6208.75,  116.5,   0.77927
"SCN_CN15_9092_CEI068", 13.8, 1,    6208.52,   -3.5,   0.77924, 2,    6208.51, -123.5,   0.77924, 3,    6208.51,  116.5,   0.77924
"SCN_CN15_9091_CEI068", 13.8, 1,    6208.27,   -3.6,   0.77921, 2,    6208.26, -123.6,    0.7792, 3,    6208.26,  116.4,    0.7792
"SCN_CN15_9090_CEI068", 13.8, 1,     6207.8,   -3.6,   0.77915, 2,    6207.79, -123.6,   0.77915, 3,    6207.79,  116.4,   0.77915
"SCN_CN15_9089_CEI068_S", 13.8, 1,    6207.51,   -3.6,   0.77911, 2,     6207.5, -123.6,   0.77911, 3,     6207.5,  116.4,   0.77911
"SCN_CN15_9086_CEI068", 13.8, 1,    6207.12,   -3.6,   0.77906, 2,    6207.12, -123.6,   0.77906, 3,    6207.12,  116.4,   0.77906
"SCN_CN15_9085_CEI068", 13.8, 1,    6206.63,   -3.6,     0.779, 2,    6206.63, -123.6,     0.779, 3,    6206.63,  116.4,     0.779
"SCN_CN15_9086_CEI068_S", 13.8, 1,    6207.12,   -3.6,   0.77906, 2,    6207.12, -123.6,   0.77906, 3,    6207.12,  116.4,   0.77906
"SCN_CN15_9082_CEI068", 13.8, 1,    6206.06,   -3.6,   0.77893, 2,    6206.05, -123.6,   0.77893, 3,    6206.05,  116.4,   0.77893
"SCN_CN15_9081_CEI068", 13.8, 1,    6205.47,   -3.6,   0.77885, 2,    6205.46, -123.6,   0.77885, 3,    6205.46,  116.4,   0.77885
"SCN_CN15_9080_CEI068", 13.8, 1,    6204.89,   -3.6,   0.77878, 2,    6204.88, -123.6,   0.77878, 3,    6204.88,  116.4,   0.77878
"SCN_CN15_9026_CEI201_ATV", 13.8, 1,       5595,   -5.5,   0.70223, 2,    5594.99, -125.5,   0.70223, 3,    5594.99,  114.5,   0.70223
"SCN_CN15_9027_CEI201_ATV", 13.8, 1,    5595.24,   -5.5,   0.70226, 2,    5595.23, -125.5,   0.70226, 3,    5595.23,  114.5,   0.70226
"SCN_CN15_9449_CEI109", 13.8, 1,    5659.13,   -5.2,   0.71028, 2,    5659.12, -125.2,   0.71028, 3,    5659.12,  114.8,   0.71028
"SCN_CN15_9079_CEI068", 13.8, 1,    6204.32,   -3.6,   0.77871, 2,    6204.31, -123.6,   0.77871, 3,    6204.31,  116.4,   0.77871
"SCN_CN15_9078_CEI068", 13.8, 1,    6203.75,   -3.6,   0.77864, 2,    6203.74, -123.6,   0.77864, 3,    6203.74,  116.4,   0.77864
"SCN_CN15_9077_CEI068", 13.8, 1,    6203.17,   -3.6,   0.77857, 2,    6203.16, -123.6,   0.77856, 3,    6203.16,  116.4,   0.77856
"SCN_CN15_9076_CEI068", 13.8, 1,    6202.63,   -3.6,    0.7785, 2,    6202.62, -123.6,    0.7785, 3,    6202.63,  116.4,    0.7785
"SCN_CN15_9075_CEI068", 13.8, 1,     6202.1,   -3.6,   0.77843, 2,    6202.09, -123.6,   0.77843, 3,    6202.09,  116.4,   0.77843
"SCN_CN15_9074_CEI068", 13.8, 1,    6201.55,   -3.6,   0.77836, 2,    6201.54, -123.6,   0.77836, 3,    6201.54,  116.4,   0.77836
"SCN_CN15_9073_CEI068", 13.8, 1,    6200.99,   -3.6,   0.77829, 2,    6200.98, -123.6,   0.77829, 3,    6200.98,  116.4,   0.77829
"SCN_CN15_9072_CEI068", 13.8, 1,    6200.45,   -3.6,   0.77822, 2,    6200.44, -123.6,   0.77822, 3,    6200.44,  116.4,   0.77822
"SCN_CN15_9071_CEI068", 13.8, 1,    6199.92,   -3.6,   0.77816, 2,    6199.92, -123.6,   0.77816, 3,    6199.92,  116.4,   0.77816
"SCN_CN15_9070_CEI068", 13.8, 1,    6199.54,   -3.6,   0.77811, 2,    6199.53, -123.6,   0.77811, 3,    6199.53,  116.4,   0.77811
...